DS on 30-Sep-2025:
Based on https://github.com/IEAWindTask52/LidarAssistedControl/tree/SummerGames2025
Main idea is to have a starting point for controller groups. 

Sprint is IEA 15MW from original file in summer games 2025
SprintOptimus_3p4MW is IEA 3.4 MW adjusted for OpenFAST v3.0 and ROSCO v2.6
OptimusMarathon is DLC 1.2 simulation for IEA 3.4 MW