DS on 17-Oct-2025:
Based on https://github.com/IEAWindTask52/LidarAssistedControl/tree/SummerGames2025
Main idea is to have a starting point for controller groups. 

DLC 1.2 scripts for:
IEA Wind 3.4 MW
OpenFAST v3.0.0
ROSCO v2.6.0
