DS on 08-Oct-2025:
Based on https://github.com/IEAWindTask52/LidarAssistedControl/tree/SummerGames2025
Main idea is to have a starting point for controller groups. 

OpenFAST v3.0.0
